* NGSPICE file created from core.ext - technology: sky130A

* Black-box entry subcircuit for sky130_fd_sc_hd__fill_1 abstract view
.subckt sky130_fd_sc_hd__fill_1 VGND VNB VPB VPWR
.ends

* Black-box entry subcircuit for sky130_fd_sc_hd__a221o_2 abstract view
.subckt sky130_fd_sc_hd__a221o_2 A1 A2 B1 B2 C1 VGND VNB VPB VPWR X
.ends

* Black-box entry subcircuit for sky130_fd_sc_hd__clkbuf_1 abstract view
.subckt sky130_fd_sc_hd__clkbuf_1 A VGND VNB VPB VPWR X
.ends

* Black-box entry subcircuit for sky130_fd_sc_hd__o31ai_2 abstract view
.subckt sky130_fd_sc_hd__o31ai_2 A1 A2 A3 B1 VGND VNB VPB VPWR Y
.ends

* Black-box entry subcircuit for sky130_fd_sc_hd__a221o_1 abstract view
.subckt sky130_fd_sc_hd__a221o_1 A1 A2 B1 B2 C1 VGND VNB VPB VPWR X
.ends

* Black-box entry subcircuit for sky130_fd_sc_hd__clkbuf_4 abstract view
.subckt sky130_fd_sc_hd__clkbuf_4 A VGND VNB VPB VPWR X
.ends

* Black-box entry subcircuit for sky130_ef_sc_hd__decap_12 abstract view
.subckt sky130_ef_sc_hd__decap_12 VGND VPWR VPB VNB
.ends

* Black-box entry subcircuit for sky130_fd_sc_hd__tapvpwrvgnd_1 abstract view
.subckt sky130_fd_sc_hd__tapvpwrvgnd_1 VGND VPWR
.ends

* Black-box entry subcircuit for sky130_fd_sc_hd__nand2_1 abstract view
.subckt sky130_fd_sc_hd__nand2_1 A B VGND VNB VPB VPWR Y
.ends

* Black-box entry subcircuit for sky130_fd_sc_hd__a22o_1 abstract view
.subckt sky130_fd_sc_hd__a22o_1 A1 A2 B1 B2 VGND VNB VPB VPWR X
.ends

* Black-box entry subcircuit for sky130_fd_sc_hd__a21bo_1 abstract view
.subckt sky130_fd_sc_hd__a21bo_1 A1 A2 B1_N VGND VNB VPB VPWR X
.ends

* Black-box entry subcircuit for sky130_fd_sc_hd__clkbuf_8 abstract view
.subckt sky130_fd_sc_hd__clkbuf_8 A VGND VNB VPB VPWR X
.ends

* Black-box entry subcircuit for sky130_fd_sc_hd__decap_8 abstract view
.subckt sky130_fd_sc_hd__decap_8 VGND VNB VPB VPWR
.ends

* Black-box entry subcircuit for sky130_fd_sc_hd__decap_4 abstract view
.subckt sky130_fd_sc_hd__decap_4 VGND VNB VPB VPWR
.ends

* Black-box entry subcircuit for sky130_fd_sc_hd__decap_6 abstract view
.subckt sky130_fd_sc_hd__decap_6 VGND VNB VPB VPWR
.ends

* Black-box entry subcircuit for sky130_fd_sc_hd__and2b_1 abstract view
.subckt sky130_fd_sc_hd__and2b_1 A_N B VGND VNB VPB VPWR X
.ends

* Black-box entry subcircuit for sky130_fd_sc_hd__a31o_1 abstract view
.subckt sky130_fd_sc_hd__a31o_1 A1 A2 A3 B1 VGND VNB VPB VPWR X
.ends

* Black-box entry subcircuit for sky130_fd_sc_hd__decap_3 abstract view
.subckt sky130_fd_sc_hd__decap_3 VGND VNB VPB VPWR
.ends

* Black-box entry subcircuit for sky130_fd_sc_hd__inv_2 abstract view
.subckt sky130_fd_sc_hd__inv_2 A VGND VNB VPB VPWR Y
.ends

* Black-box entry subcircuit for sky130_fd_sc_hd__or4_1 abstract view
.subckt sky130_fd_sc_hd__or4_1 A B C D VGND VNB VPB VPWR X
.ends

* Black-box entry subcircuit for sky130_fd_sc_hd__buf_4 abstract view
.subckt sky130_fd_sc_hd__buf_4 A VGND VNB VPB VPWR X
.ends

* Black-box entry subcircuit for sky130_fd_sc_hd__mux2_1 abstract view
.subckt sky130_fd_sc_hd__mux2_1 A0 A1 S VGND VNB VPB VPWR X
.ends

* Black-box entry subcircuit for sky130_fd_sc_hd__fill_2 abstract view
.subckt sky130_fd_sc_hd__fill_2 VGND VNB VPB VPWR
.ends

* Black-box entry subcircuit for sky130_fd_sc_hd__buf_6 abstract view
.subckt sky130_fd_sc_hd__buf_6 A VGND VNB VPB VPWR X
.ends

* Black-box entry subcircuit for sky130_fd_sc_hd__dfrtp_1 abstract view
.subckt sky130_fd_sc_hd__dfrtp_1 CLK D RESET_B VGND VNB VPB VPWR Q
.ends

* Black-box entry subcircuit for sky130_fd_sc_hd__dfrtp_2 abstract view
.subckt sky130_fd_sc_hd__dfrtp_2 CLK D RESET_B VGND VNB VPB VPWR Q
.ends

* Black-box entry subcircuit for sky130_fd_sc_hd__buf_1 abstract view
.subckt sky130_fd_sc_hd__buf_1 A VGND VNB VPB VPWR X
.ends

* Black-box entry subcircuit for sky130_fd_sc_hd__o211a_1 abstract view
.subckt sky130_fd_sc_hd__o211a_1 A1 A2 B1 C1 VGND VNB VPB VPWR X
.ends

* Black-box entry subcircuit for sky130_fd_sc_hd__o31a_1 abstract view
.subckt sky130_fd_sc_hd__o31a_1 A1 A2 A3 B1 VGND VNB VPB VPWR X
.ends

* Black-box entry subcircuit for sky130_fd_sc_hd__nor2_1 abstract view
.subckt sky130_fd_sc_hd__nor2_1 A B VGND VNB VPB VPWR Y
.ends

* Black-box entry subcircuit for sky130_fd_sc_hd__o21ai_1 abstract view
.subckt sky130_fd_sc_hd__o21ai_1 A1 A2 B1 VGND VNB VPB VPWR Y
.ends

* Black-box entry subcircuit for sky130_fd_sc_hd__and3_1 abstract view
.subckt sky130_fd_sc_hd__and3_1 A B C VGND VNB VPB VPWR X
.ends

* Black-box entry subcircuit for sky130_fd_sc_hd__buf_2 abstract view
.subckt sky130_fd_sc_hd__buf_2 A VGND VNB VPB VPWR X
.ends

* Black-box entry subcircuit for sky130_fd_sc_hd__xor2_1 abstract view
.subckt sky130_fd_sc_hd__xor2_1 A B VGND VNB VPB VPWR X
.ends

* Black-box entry subcircuit for sky130_fd_sc_hd__dfrtp_4 abstract view
.subckt sky130_fd_sc_hd__dfrtp_4 CLK D RESET_B VGND VNB VPB VPWR Q
.ends

* Black-box entry subcircuit for sky130_fd_sc_hd__o21a_1 abstract view
.subckt sky130_fd_sc_hd__o21a_1 A1 A2 B1 VGND VNB VPB VPWR X
.ends

* Black-box entry subcircuit for sky130_fd_sc_hd__or2_1 abstract view
.subckt sky130_fd_sc_hd__or2_1 A B VGND VNB VPB VPWR X
.ends

* Black-box entry subcircuit for sky130_fd_sc_hd__nand4_2 abstract view
.subckt sky130_fd_sc_hd__nand4_2 A B C D VGND VNB VPB VPWR Y
.ends

* Black-box entry subcircuit for sky130_fd_sc_hd__nor2_2 abstract view
.subckt sky130_fd_sc_hd__nor2_2 A B VGND VNB VPB VPWR Y
.ends

* Black-box entry subcircuit for sky130_fd_sc_hd__or3_4 abstract view
.subckt sky130_fd_sc_hd__or3_4 A B C VGND VNB VPB VPWR X
.ends

* Black-box entry subcircuit for sky130_fd_sc_hd__or3_1 abstract view
.subckt sky130_fd_sc_hd__or3_1 A B C VGND VNB VPB VPWR X
.ends

* Black-box entry subcircuit for sky130_fd_sc_hd__nand2_4 abstract view
.subckt sky130_fd_sc_hd__nand2_4 A B VGND VNB VPB VPWR Y
.ends

* Black-box entry subcircuit for sky130_fd_sc_hd__buf_8 abstract view
.subckt sky130_fd_sc_hd__buf_8 A VGND VNB VPB VPWR X
.ends

* Black-box entry subcircuit for sky130_fd_sc_hd__and3_2 abstract view
.subckt sky130_fd_sc_hd__and3_2 A B C VGND VNB VPB VPWR X
.ends

* Black-box entry subcircuit for sky130_fd_sc_hd__a21boi_1 abstract view
.subckt sky130_fd_sc_hd__a21boi_1 A1 A2 B1_N VGND VNB VPB VPWR Y
.ends

* Black-box entry subcircuit for sky130_fd_sc_hd__a311o_1 abstract view
.subckt sky130_fd_sc_hd__a311o_1 A1 A2 A3 B1 C1 VGND VNB VPB VPWR X
.ends

* Black-box entry subcircuit for sky130_fd_sc_hd__dlygate4sd3_1 abstract view
.subckt sky130_fd_sc_hd__dlygate4sd3_1 A VGND VNB VPB VPWR X
.ends

* Black-box entry subcircuit for sky130_fd_sc_hd__clkbuf_16 abstract view
.subckt sky130_fd_sc_hd__clkbuf_16 A VGND VNB VPB VPWR X
.ends

* Black-box entry subcircuit for sky130_fd_sc_hd__diode_2 abstract view
.subckt sky130_fd_sc_hd__diode_2 DIODE VGND VNB VPB VPWR
.ends

* Black-box entry subcircuit for sky130_fd_sc_hd__and3b_1 abstract view
.subckt sky130_fd_sc_hd__and3b_1 A_N B C VGND VNB VPB VPWR X
.ends

* Black-box entry subcircuit for sky130_fd_sc_hd__dlygate4sd1_1 abstract view
.subckt sky130_fd_sc_hd__dlygate4sd1_1 A VGND VNB VPB VPWR X
.ends

* Black-box entry subcircuit for sky130_fd_sc_hd__o21a_2 abstract view
.subckt sky130_fd_sc_hd__o21a_2 A1 A2 B1 VGND VNB VPB VPWR X
.ends

* Black-box entry subcircuit for sky130_fd_sc_hd__and2_2 abstract view
.subckt sky130_fd_sc_hd__and2_2 A B VGND VNB VPB VPWR X
.ends

* Black-box entry subcircuit for sky130_fd_sc_hd__and2_1 abstract view
.subckt sky130_fd_sc_hd__and2_1 A B VGND VNB VPB VPWR X
.ends

* Black-box entry subcircuit for sky130_fd_sc_hd__clkbuf_2 abstract view
.subckt sky130_fd_sc_hd__clkbuf_2 A VGND VNB VPB VPWR X
.ends

* Black-box entry subcircuit for sky130_fd_sc_hd__xnor2_1 abstract view
.subckt sky130_fd_sc_hd__xnor2_1 A B VGND VNB VPB VPWR Y
.ends

* Black-box entry subcircuit for sky130_fd_sc_hd__a211o_1 abstract view
.subckt sky130_fd_sc_hd__a211o_1 A1 A2 B1 C1 VGND VNB VPB VPWR X
.ends

* Black-box entry subcircuit for sky130_fd_sc_hd__a211oi_4 abstract view
.subckt sky130_fd_sc_hd__a211oi_4 A1 A2 B1 C1 VGND VNB VPB VPWR Y
.ends

* Black-box entry subcircuit for sky130_fd_sc_hd__mux4_1 abstract view
.subckt sky130_fd_sc_hd__mux4_1 A0 A1 A2 A3 S0 S1 VGND VNB VPB VPWR X
.ends

* Black-box entry subcircuit for sky130_fd_sc_hd__or2_2 abstract view
.subckt sky130_fd_sc_hd__or2_2 A B VGND VNB VPB VPWR X
.ends

* Black-box entry subcircuit for sky130_fd_sc_hd__a21o_1 abstract view
.subckt sky130_fd_sc_hd__a21o_1 A1 A2 B1 VGND VNB VPB VPWR X
.ends

* Black-box entry subcircuit for sky130_fd_sc_hd__o21ai_2 abstract view
.subckt sky130_fd_sc_hd__o21ai_2 A1 A2 B1 VGND VNB VPB VPWR Y
.ends

* Black-box entry subcircuit for sky130_fd_sc_hd__a21oi_1 abstract view
.subckt sky130_fd_sc_hd__a21oi_1 A1 A2 B1 VGND VNB VPB VPWR Y
.ends

* Black-box entry subcircuit for sky130_fd_sc_hd__o22a_1 abstract view
.subckt sky130_fd_sc_hd__o22a_1 A1 A2 B1 B2 VGND VNB VPB VPWR X
.ends

* Black-box entry subcircuit for sky130_fd_sc_hd__or4b_2 abstract view
.subckt sky130_fd_sc_hd__or4b_2 A B C D_N VGND VNB VPB VPWR X
.ends

* Black-box entry subcircuit for sky130_fd_sc_hd__and3_4 abstract view
.subckt sky130_fd_sc_hd__and3_4 A B C VGND VNB VPB VPWR X
.ends

* Black-box entry subcircuit for sky130_fd_sc_hd__or3b_1 abstract view
.subckt sky130_fd_sc_hd__or3b_1 A B C_N VGND VNB VPB VPWR X
.ends

* Black-box entry subcircuit for sky130_fd_sc_hd__a22oi_1 abstract view
.subckt sky130_fd_sc_hd__a22oi_1 A1 A2 B1 B2 VGND VNB VPB VPWR Y
.ends

* Black-box entry subcircuit for sky130_fd_sc_hd__nor2_4 abstract view
.subckt sky130_fd_sc_hd__nor2_4 A B VGND VNB VPB VPWR Y
.ends

* Black-box entry subcircuit for sky130_fd_sc_hd__a221oi_4 abstract view
.subckt sky130_fd_sc_hd__a221oi_4 A1 A2 B1 B2 C1 VGND VNB VPB VPWR Y
.ends

* Black-box entry subcircuit for sky130_fd_sc_hd__or2b_1 abstract view
.subckt sky130_fd_sc_hd__or2b_1 A B_N VGND VNB VPB VPWR X
.ends

* Black-box entry subcircuit for sky130_fd_sc_hd__dfxtp_1 abstract view
.subckt sky130_fd_sc_hd__dfxtp_1 CLK D VGND VNB VPB VPWR Q
.ends

* Black-box entry subcircuit for sky130_fd_sc_hd__a2bb2o_1 abstract view
.subckt sky130_fd_sc_hd__a2bb2o_1 A1_N A2_N B1 B2 VGND VNB VPB VPWR X
.ends

* Black-box entry subcircuit for sky130_fd_sc_hd__nand3_1 abstract view
.subckt sky130_fd_sc_hd__nand3_1 A B C VGND VNB VPB VPWR Y
.ends

* Black-box entry subcircuit for sky130_fd_sc_hd__o21ba_1 abstract view
.subckt sky130_fd_sc_hd__o21ba_1 A1 A2 B1_N VGND VNB VPB VPWR X
.ends

* Black-box entry subcircuit for sky130_fd_sc_hd__a21oi_2 abstract view
.subckt sky130_fd_sc_hd__a21oi_2 A1 A2 B1 VGND VNB VPB VPWR Y
.ends

* Black-box entry subcircuit for sky130_fd_sc_hd__o21bai_1 abstract view
.subckt sky130_fd_sc_hd__o21bai_1 A1 A2 B1_N VGND VNB VPB VPWR Y
.ends

* Black-box entry subcircuit for sky130_fd_sc_hd__dlymetal6s2s_1 abstract view
.subckt sky130_fd_sc_hd__dlymetal6s2s_1 A VGND VNB VPB VPWR X
.ends

* Black-box entry subcircuit for sky130_fd_sc_hd__clkdlybuf4s25_1 abstract view
.subckt sky130_fd_sc_hd__clkdlybuf4s25_1 A VGND VNB VPB VPWR X
.ends

* Black-box entry subcircuit for sky130_fd_sc_hd__nand3b_1 abstract view
.subckt sky130_fd_sc_hd__nand3b_1 A_N B C VGND VNB VPB VPWR Y
.ends

* Black-box entry subcircuit for sky130_fd_sc_hd__dfxtp_2 abstract view
.subckt sky130_fd_sc_hd__dfxtp_2 CLK D VGND VNB VPB VPWR Q
.ends

* Black-box entry subcircuit for sky130_fd_sc_hd__or4b_1 abstract view
.subckt sky130_fd_sc_hd__or4b_1 A B C D_N VGND VNB VPB VPWR X
.ends

* Black-box entry subcircuit for sky130_fd_sc_hd__nand3b_2 abstract view
.subckt sky130_fd_sc_hd__nand3b_2 A_N B C VGND VNB VPB VPWR Y
.ends

* Black-box entry subcircuit for sky130_fd_sc_hd__nor4_2 abstract view
.subckt sky130_fd_sc_hd__nor4_2 A B C D VGND VNB VPB VPWR Y
.ends

* Black-box entry subcircuit for sky130_fd_sc_hd__o311a_1 abstract view
.subckt sky130_fd_sc_hd__o311a_1 A1 A2 A3 B1 C1 VGND VNB VPB VPWR X
.ends

* Black-box entry subcircuit for sky130_fd_sc_hd__and2_4 abstract view
.subckt sky130_fd_sc_hd__and2_4 A B VGND VNB VPB VPWR X
.ends

* Black-box entry subcircuit for sky130_fd_sc_hd__o31a_2 abstract view
.subckt sky130_fd_sc_hd__o31a_2 A1 A2 A3 B1 VGND VNB VPB VPWR X
.ends

* Black-box entry subcircuit for sky130_fd_sc_hd__a31o_2 abstract view
.subckt sky130_fd_sc_hd__a31o_2 A1 A2 A3 B1 VGND VNB VPB VPWR X
.ends

* Black-box entry subcircuit for sky130_fd_sc_hd__nand2_2 abstract view
.subckt sky130_fd_sc_hd__nand2_2 A B VGND VNB VPB VPWR Y
.ends

* Black-box entry subcircuit for sky130_fd_sc_hd__a41o_1 abstract view
.subckt sky130_fd_sc_hd__a41o_1 A1 A2 A3 A4 B1 VGND VNB VPB VPWR X
.ends

* Black-box entry subcircuit for sky130_fd_sc_hd__and4_1 abstract view
.subckt sky130_fd_sc_hd__and4_1 A B C D VGND VNB VPB VPWR X
.ends

* Black-box entry subcircuit for sky130_fd_sc_hd__xnor2_2 abstract view
.subckt sky130_fd_sc_hd__xnor2_2 A B VGND VNB VPB VPWR Y
.ends

* Black-box entry subcircuit for sky130_fd_sc_hd__a21o_2 abstract view
.subckt sky130_fd_sc_hd__a21o_2 A1 A2 B1 VGND VNB VPB VPWR X
.ends

* Black-box entry subcircuit for sky130_fd_sc_hd__or3_2 abstract view
.subckt sky130_fd_sc_hd__or3_2 A B C VGND VNB VPB VPWR X
.ends

* Black-box entry subcircuit for sky130_fd_sc_hd__o2111a_1 abstract view
.subckt sky130_fd_sc_hd__o2111a_1 A1 A2 B1 C1 D1 VGND VNB VPB VPWR X
.ends

* Black-box entry subcircuit for sky130_fd_sc_hd__mux4_2 abstract view
.subckt sky130_fd_sc_hd__mux4_2 A0 A1 A2 A3 S0 S1 VGND VNB VPB VPWR X
.ends

* Black-box entry subcircuit for sky130_fd_sc_hd__a211oi_2 abstract view
.subckt sky130_fd_sc_hd__a211oi_2 A1 A2 B1 C1 VGND VNB VPB VPWR Y
.ends

* Black-box entry subcircuit for sky130_fd_sc_hd__nor4_1 abstract view
.subckt sky130_fd_sc_hd__nor4_1 A B C D VGND VNB VPB VPWR Y
.ends

* Black-box entry subcircuit for sky130_fd_sc_hd__o211a_4 abstract view
.subckt sky130_fd_sc_hd__o211a_4 A1 A2 B1 C1 VGND VNB VPB VPWR X
.ends

* Black-box entry subcircuit for sky130_fd_sc_hd__o41a_1 abstract view
.subckt sky130_fd_sc_hd__o41a_1 A1 A2 A3 A4 B1 VGND VNB VPB VPWR X
.ends

* Black-box entry subcircuit for sky130_fd_sc_hd__a32o_1 abstract view
.subckt sky130_fd_sc_hd__a32o_1 A1 A2 A3 B1 B2 VGND VNB VPB VPWR X
.ends

* Black-box entry subcircuit for sky130_fd_sc_hd__nor3_1 abstract view
.subckt sky130_fd_sc_hd__nor3_1 A B C VGND VNB VPB VPWR Y
.ends

* Black-box entry subcircuit for sky130_fd_sc_hd__o31ai_1 abstract view
.subckt sky130_fd_sc_hd__o31ai_1 A1 A2 A3 B1 VGND VNB VPB VPWR Y
.ends

* Black-box entry subcircuit for sky130_fd_sc_hd__a21oi_4 abstract view
.subckt sky130_fd_sc_hd__a21oi_4 A1 A2 B1 VGND VNB VPB VPWR Y
.ends

* Black-box entry subcircuit for sky130_fd_sc_hd__o22ai_1 abstract view
.subckt sky130_fd_sc_hd__o22ai_1 A1 A2 B1 B2 VGND VNB VPB VPWR Y
.ends

* Black-box entry subcircuit for sky130_fd_sc_hd__o311a_2 abstract view
.subckt sky130_fd_sc_hd__o311a_2 A1 A2 A3 B1 C1 VGND VNB VPB VPWR X
.ends

* Black-box entry subcircuit for sky130_fd_sc_hd__a221o_4 abstract view
.subckt sky130_fd_sc_hd__a221o_4 A1 A2 B1 B2 C1 VGND VNB VPB VPWR X
.ends

* Black-box entry subcircuit for sky130_fd_sc_hd__and4bb_4 abstract view
.subckt sky130_fd_sc_hd__and4bb_4 A_N B_N C D VGND VNB VPB VPWR X
.ends

* Black-box entry subcircuit for sky130_fd_sc_hd__nor2b_2 abstract view
.subckt sky130_fd_sc_hd__nor2b_2 A B_N VGND VNB VPB VPWR Y
.ends

* Black-box entry subcircuit for sky130_fd_sc_hd__o32a_1 abstract view
.subckt sky130_fd_sc_hd__o32a_1 A1 A2 A3 B1 B2 VGND VNB VPB VPWR X
.ends

* Black-box entry subcircuit for sky130_fd_sc_hd__o221ai_1 abstract view
.subckt sky130_fd_sc_hd__o221ai_1 A1 A2 B1 B2 C1 VGND VNB VPB VPWR Y
.ends

* Black-box entry subcircuit for sky130_fd_sc_hd__or4_4 abstract view
.subckt sky130_fd_sc_hd__or4_4 A B C D VGND VNB VPB VPWR X
.ends

* Black-box entry subcircuit for sky130_fd_sc_hd__o221a_1 abstract view
.subckt sky130_fd_sc_hd__o221a_1 A1 A2 B1 B2 C1 VGND VNB VPB VPWR X
.ends

* Black-box entry subcircuit for sky130_fd_sc_hd__xor2_2 abstract view
.subckt sky130_fd_sc_hd__xor2_2 A B VGND VNB VPB VPWR X
.ends

* Black-box entry subcircuit for sky130_fd_sc_hd__or2_4 abstract view
.subckt sky130_fd_sc_hd__or2_4 A B VGND VNB VPB VPWR X
.ends

* Black-box entry subcircuit for sky130_fd_sc_hd__and4_2 abstract view
.subckt sky130_fd_sc_hd__and4_2 A B C D VGND VNB VPB VPWR X
.ends

* Black-box entry subcircuit for sky130_fd_sc_hd__a221oi_2 abstract view
.subckt sky130_fd_sc_hd__a221oi_2 A1 A2 B1 B2 C1 VGND VNB VPB VPWR Y
.ends

* Black-box entry subcircuit for sky130_fd_sc_hd__buf_12 abstract view
.subckt sky130_fd_sc_hd__buf_12 A VGND VNB VPB VPWR X
.ends

* Black-box entry subcircuit for sky130_fd_sc_hd__o221ai_2 abstract view
.subckt sky130_fd_sc_hd__o221ai_2 A1 A2 B1 B2 C1 VGND VNB VPB VPWR Y
.ends

* Black-box entry subcircuit for sky130_fd_sc_hd__or2b_2 abstract view
.subckt sky130_fd_sc_hd__or2b_2 A B_N VGND VNB VPB VPWR X
.ends

* Black-box entry subcircuit for sky130_fd_sc_hd__nand2b_1 abstract view
.subckt sky130_fd_sc_hd__nand2b_1 A_N B VGND VNB VPB VPWR Y
.ends

* Black-box entry subcircuit for sky130_fd_sc_hd__a21boi_2 abstract view
.subckt sky130_fd_sc_hd__a21boi_2 A1 A2 B1_N VGND VNB VPB VPWR Y
.ends

* Black-box entry subcircuit for sky130_fd_sc_hd__o31a_4 abstract view
.subckt sky130_fd_sc_hd__o31a_4 A1 A2 A3 B1 VGND VNB VPB VPWR X
.ends

* Black-box entry subcircuit for sky130_fd_sc_hd__and3b_2 abstract view
.subckt sky130_fd_sc_hd__and3b_2 A_N B C VGND VNB VPB VPWR X
.ends

* Black-box entry subcircuit for sky130_fd_sc_hd__nand4_1 abstract view
.subckt sky130_fd_sc_hd__nand4_1 A B C D VGND VNB VPB VPWR Y
.ends

* Black-box entry subcircuit for sky130_fd_sc_hd__o2bb2a_1 abstract view
.subckt sky130_fd_sc_hd__o2bb2a_1 A1_N A2_N B1 B2 VGND VNB VPB VPWR X
.ends

* Black-box entry subcircuit for sky130_fd_sc_hd__a31oi_2 abstract view
.subckt sky130_fd_sc_hd__a31oi_2 A1 A2 A3 B1 VGND VNB VPB VPWR Y
.ends

* Black-box entry subcircuit for sky130_fd_sc_hd__a221oi_1 abstract view
.subckt sky130_fd_sc_hd__a221oi_1 A1 A2 B1 B2 C1 VGND VNB VPB VPWR Y
.ends

* Black-box entry subcircuit for sky130_fd_sc_hd__xnor2_4 abstract view
.subckt sky130_fd_sc_hd__xnor2_4 A B VGND VNB VPB VPWR Y
.ends

* Black-box entry subcircuit for sky130_fd_sc_hd__o211ai_4 abstract view
.subckt sky130_fd_sc_hd__o211ai_4 A1 A2 B1 C1 VGND VNB VPB VPWR Y
.ends

* Black-box entry subcircuit for sky130_fd_sc_hd__a2111o_1 abstract view
.subckt sky130_fd_sc_hd__a2111o_1 A1 A2 B1 C1 D1 VGND VNB VPB VPWR X
.ends

* Black-box entry subcircuit for sky130_fd_sc_hd__o21a_4 abstract view
.subckt sky130_fd_sc_hd__o21a_4 A1 A2 B1 VGND VNB VPB VPWR X
.ends

* Black-box entry subcircuit for sky130_fd_sc_hd__o21bai_2 abstract view
.subckt sky130_fd_sc_hd__o21bai_2 A1 A2 B1_N VGND VNB VPB VPWR Y
.ends

* Black-box entry subcircuit for sky130_fd_sc_hd__nand2b_2 abstract view
.subckt sky130_fd_sc_hd__nand2b_2 A_N B VGND VNB VPB VPWR Y
.ends

* Black-box entry subcircuit for sky130_fd_sc_hd__o211ai_1 abstract view
.subckt sky130_fd_sc_hd__o211ai_1 A1 A2 B1 C1 VGND VNB VPB VPWR Y
.ends

* Black-box entry subcircuit for sky130_fd_sc_hd__a31oi_4 abstract view
.subckt sky130_fd_sc_hd__a31oi_4 A1 A2 A3 B1 VGND VNB VPB VPWR Y
.ends

* Black-box entry subcircuit for sky130_fd_sc_hd__and2b_2 abstract view
.subckt sky130_fd_sc_hd__and2b_2 A_N B VGND VNB VPB VPWR X
.ends

* Black-box entry subcircuit for sky130_fd_sc_hd__and4b_1 abstract view
.subckt sky130_fd_sc_hd__and4b_1 A_N B C D VGND VNB VPB VPWR X
.ends

* Black-box entry subcircuit for sky130_fd_sc_hd__o211ai_2 abstract view
.subckt sky130_fd_sc_hd__o211ai_2 A1 A2 B1 C1 VGND VNB VPB VPWR Y
.ends

* Black-box entry subcircuit for sky130_fd_sc_hd__a211oi_1 abstract view
.subckt sky130_fd_sc_hd__a211oi_1 A1 A2 B1 C1 VGND VNB VPB VPWR Y
.ends

* Black-box entry subcircuit for sky130_fd_sc_hd__o31ai_4 abstract view
.subckt sky130_fd_sc_hd__o31ai_4 A1 A2 A3 B1 VGND VNB VPB VPWR Y
.ends

.subckt core VGND VPWR access_size_o[0] access_size_o[1] access_size_o[2] adr_o[0]
+ adr_o[10] adr_o[11] adr_o[12] adr_o[13] adr_o[14] adr_o[15] adr_o[16] adr_o[17]
+ adr_o[18] adr_o[19] adr_o[1] adr_o[20] adr_o[21] adr_o[22] adr_o[23] adr_o[24] adr_o[25]
+ adr_o[26] adr_o[27] adr_o[28] adr_o[29] adr_o[2] adr_o[30] adr_o[31] adr_o[3] adr_o[4]
+ adr_o[5] adr_o[6] adr_o[7] adr_o[8] adr_o[9] adr_v_o clk icache_adr_o[0] icache_adr_o[10]
+ icache_adr_o[11] icache_adr_o[12] icache_adr_o[13] icache_adr_o[14] icache_adr_o[15]
+ icache_adr_o[16] icache_adr_o[17] icache_adr_o[18] icache_adr_o[19] icache_adr_o[1]
+ icache_adr_o[20] icache_adr_o[21] icache_adr_o[22] icache_adr_o[23] icache_adr_o[24]
+ icache_adr_o[25] icache_adr_o[26] icache_adr_o[27] icache_adr_o[28] icache_adr_o[29]
+ icache_adr_o[2] icache_adr_o[30] icache_adr_o[31] icache_adr_o[3] icache_adr_o[4]
+ icache_adr_o[5] icache_adr_o[6] icache_adr_o[7] icache_adr_o[8] icache_adr_o[9]
+ icache_instr_i[0] icache_instr_i[10] icache_instr_i[11] icache_instr_i[12] icache_instr_i[13]
+ icache_instr_i[14] icache_instr_i[15] icache_instr_i[16] icache_instr_i[17] icache_instr_i[18]
+ icache_instr_i[19] icache_instr_i[1] icache_instr_i[20] icache_instr_i[21] icache_instr_i[22]
+ icache_instr_i[23] icache_instr_i[24] icache_instr_i[25] icache_instr_i[26] icache_instr_i[27]
+ icache_instr_i[28] icache_instr_i[29] icache_instr_i[2] icache_instr_i[30] icache_instr_i[31]
+ icache_instr_i[3] icache_instr_i[4] icache_instr_i[5] icache_instr_i[6] icache_instr_i[7]
+ icache_instr_i[8] icache_instr_i[9] is_store_o load_data_i[0] load_data_i[10] load_data_i[11]
+ load_data_i[12] load_data_i[13] load_data_i[14] load_data_i[15] load_data_i[16]
+ load_data_i[17] load_data_i[18] load_data_i[19] load_data_i[1] load_data_i[20] load_data_i[21]
+ load_data_i[22] load_data_i[23] load_data_i[24] load_data_i[25] load_data_i[26]
+ load_data_i[27] load_data_i[28] load_data_i[29] load_data_i[2] load_data_i[30] load_data_i[31]
+ load_data_i[3] load_data_i[4] load_data_i[5] load_data_i[6] load_data_i[7] load_data_i[8]
+ load_data_i[9] reset_adr_i[0] reset_adr_i[10] reset_adr_i[11] reset_adr_i[12] reset_adr_i[13]
+ reset_adr_i[14] reset_adr_i[15] reset_adr_i[16] reset_adr_i[17] reset_adr_i[18]
+ reset_adr_i[19] reset_adr_i[1] reset_adr_i[20] reset_adr_i[21] reset_adr_i[22] reset_adr_i[23]
+ reset_adr_i[24] reset_adr_i[25] reset_adr_i[26] reset_adr_i[27] reset_adr_i[28]
+ reset_adr_i[29] reset_adr_i[2] reset_adr_i[30] reset_adr_i[31] reset_adr_i[3] reset_adr_i[4]
+ reset_adr_i[5] reset_adr_i[6] reset_adr_i[7] reset_adr_i[8] reset_adr_i[9] reset_n
+ store_data_o[0] store_data_o[10] store_data_o[11] store_data_o[12] store_data_o[13]
+ store_data_o[14] store_data_o[15] store_data_o[16] store_data_o[17] store_data_o[18]
+ store_data_o[19] store_data_o[1] store_data_o[20] store_data_o[21] store_data_o[22]
+ store_data_o[23] store_data_o[24] store_data_o[25] store_data_o[26] store_data_o[27]
+ store_data_o[28] store_data_o[29] store_data_o[2] store_data_o[30] store_data_o[31]
+ store_data_o[3] store_data_o[4] store_data_o[5] store_data_o[6] store_data_o[7]
+ store_data_o[8] store_data_o[9]
XFILLER_0_118_40 VGND VGND VPWR VPWR sky130_fd_sc_hd__fill_1
X_05903_ net510 _01118_ _01119_ net88 _01194_ VGND VGND VPWR VPWR net157 sky130_fd_sc_hd__a221o_2
X_09671_ _04614_ VGND VGND VPWR VPWR _00133_ sky130_fd_sc_hd__clkbuf_1
X_06883_ _01305_ _01308_ _01341_ _01345_ VGND VGND VPWR VPWR _02134_ sky130_fd_sc_hd__o31ai_2
X_08622_ u_rf.reg7_q\[21\] _03369_ _03370_ u_rf.reg25_q\[21\] _03804_ VGND VGND VPWR
+ VPWR _03805_ sky130_fd_sc_hd__a221o_1
X_05834_ _01104_ VGND VGND VPWR VPWR _01142_ sky130_fd_sc_hd__clkbuf_4
XFILLER_0_27_93 VGND VPWR VPWR VGND sky130_ef_sc_hd__decap_12
XTAP_TAPCELL_ROW_124_2388 VGND VPWR sky130_fd_sc_hd__tapvpwrvgnd_1
XFILLER_0_76_100 VGND VGND VPWR VPWR sky130_fd_sc_hd__fill_1
X_08553_ u_rf.reg26_q\[18\] _03344_ _03282_ u_rf.reg10_q\[18\] _03738_ VGND VGND VPWR
+ VPWR _03739_ sky130_fd_sc_hd__a221o_1
X_05765_ _01086_ _01087_ VGND VGND VPWR VPWR _01088_ sky130_fd_sc_hd__nand2_1
XTAP_TAPCELL_ROW_38_968 VGND VPWR sky130_fd_sc_hd__tapvpwrvgnd_1
X_08484_ u_rf.reg4_q\[15\] _03265_ _03357_ u_rf.reg17_q\[15\] VGND VGND VPWR VPWR
+ _03673_ sky130_fd_sc_hd__a22o_1
XFILLER_0_77_656 VGND VPWR VPWR VGND sky130_ef_sc_hd__decap_12
X_07504_ _02619_ net47 _02446_ VGND VGND VPWR VPWR _02731_ sky130_fd_sc_hd__a21bo_1
X_07435_ _01595_ VGND VGND VPWR VPWR _02665_ sky130_fd_sc_hd__clkbuf_8
XFILLER_0_58_881 VGND VPWR VPWR VGND sky130_ef_sc_hd__decap_12
XFILLER_0_18_701 VGND VPWR VPWR VGND sky130_ef_sc_hd__decap_12
XFILLER_0_147_555 VGND VGND VPWR VPWR sky130_fd_sc_hd__fill_1
XFILLER_0_107_419 VGND VGND VPWR VPWR sky130_fd_sc_hd__decap_8
XFILLER_0_57_391 VGND VGND VPWR VPWR sky130_fd_sc_hd__fill_1
XFILLER_0_9_455 VGND VGND VPWR VPWR sky130_fd_sc_hd__fill_1
XFILLER_0_17_200 VGND VGND VPWR VPWR sky130_fd_sc_hd__decap_4
XFILLER_0_147_588 VGND VPWR VPWR VGND sky130_ef_sc_hd__decap_12
XFILLER_0_91_169 VGND VGND VPWR VPWR sky130_fd_sc_hd__decap_6
X_07366_ u_rf.reg28_q\[19\] _01625_ _01631_ u_rf.reg17_q\[19\] _02597_ VGND VGND VPWR
+ VPWR _02598_ sky130_fd_sc_hd__a221o_1
XTAP_TAPCELL_ROW_44_1070 VGND VPWR sky130_fd_sc_hd__tapvpwrvgnd_1
XFILLER_0_115_441 VGND VGND VPWR VPWR sky130_fd_sc_hd__decap_6
X_06317_ _01586_ VGND VGND VPWR VPWR _01587_ sky130_fd_sc_hd__clkbuf_8
X_09105_ _04238_ _04239_ VGND VGND VPWR VPWR _04240_ sky130_fd_sc_hd__and2b_1
XFILLER_0_73_895 VGND VGND VPWR VPWR sky130_fd_sc_hd__fill_1
X_07297_ _01381_ _01400_ _02443_ _01401_ VGND VGND VPWR VPWR _02532_ sky130_fd_sc_hd__a31o_1
XFILLER_0_143_783 VGND VGND VPWR VPWR sky130_fd_sc_hd__fill_1
XFILLER_0_142_260 VGND VGND VPWR VPWR sky130_fd_sc_hd__decap_3
XFILLER_0_60_556 VGND VGND VPWR VPWR sky130_fd_sc_hd__decap_8
X_06248_ _01517_ VGND VGND VPWR VPWR _01518_ sky130_fd_sc_hd__inv_2
X_09036_ _01350_ _01345_ _01342_ _01347_ VGND VGND VPWR VPWR _04179_ sky130_fd_sc_hd__or4_1
XFILLER_0_60_589 VGND VGND VPWR VPWR sky130_fd_sc_hd__fill_1
XFILLER_0_60_567 VGND VGND VPWR VPWR sky130_fd_sc_hd__decap_8
XFILLER_0_103_669 VGND VGND VPWR VPWR sky130_fd_sc_hd__decap_3
X_06179_ u_decod.rs2_data_q\[2\] VGND VGND VPWR VPWR _01450_ sky130_fd_sc_hd__buf_4
XFILLER_0_7_81 VGND VPWR VPWR VGND sky130_ef_sc_hd__decap_12
XFILLER_0_13_483 VGND VGND VPWR VPWR sky130_fd_sc_hd__fill_1
X_09938_ _04768_ u_rf.reg7_q\[22\] _04764_ VGND VGND VPWR VPWR _04769_ sky130_fd_sc_hd__mux2_1
XFILLER_0_110_190 VGND VGND VPWR VPWR sky130_fd_sc_hd__fill_2
XTAP_TAPCELL_ROW_144_2709 VGND VPWR sky130_fd_sc_hd__tapvpwrvgnd_1
X_09869_ _04721_ VGND VGND VPWR VPWR _04722_ sky130_fd_sc_hd__buf_6
X_12880_ clknet_leaf_55_clk _00917_ net294 VGND VGND VPWR VPWR u_rf.reg28_q\[21\]
+ sky130_fd_sc_hd__dfrtp_1
X_11900_ clknet_leaf_91_clk u_decod.rs2_data_nxt\[21\] net345 VGND VGND VPWR VPWR
+ u_decod.rs2_data_q\[21\] sky130_fd_sc_hd__dfrtp_1
X_11831_ clknet_leaf_98_clk net19 net329 VGND VGND VPWR VPWR u_decod.dec0.funct7\[1\]
+ sky130_fd_sc_hd__dfrtp_2
XFILLER_0_138_500 VGND VPWR VPWR VGND sky130_ef_sc_hd__decap_12
XFILLER_0_67_133 VGND VGND VPWR VPWR sky130_fd_sc_hd__decap_4
XTAP_TAPCELL_ROW_64_1402 VGND VPWR sky130_fd_sc_hd__tapvpwrvgnd_1
XTAP_TAPCELL_ROW_16_607 VGND VPWR sky130_fd_sc_hd__tapvpwrvgnd_1
XFILLER_0_138_533 VGND VGND VPWR VPWR sky130_fd_sc_hd__fill_1
X_11762_ clknet_leaf_56_clk _00054_ net291 VGND VGND VPWR VPWR u_rf.reg1_q\[22\] sky130_fd_sc_hd__dfrtp_1
XFILLER_0_83_615 VGND VGND VPWR VPWR sky130_fd_sc_hd__fill_1
XFILLER_0_67_177 VGND VGND VPWR VPWR sky130_fd_sc_hd__decap_6
XFILLER_0_28_509 VGND VPWR VPWR VGND sky130_ef_sc_hd__decap_12
X_11693_ _05721_ VGND VGND VPWR VPWR _01048_ sky130_fd_sc_hd__clkbuf_1
XFILLER_0_55_328 VGND VGND VPWR VPWR sky130_fd_sc_hd__decap_4
X_10713_ u_rf.reg18_q\[12\] _04964_ _05199_ VGND VGND VPWR VPWR _05202_ sky130_fd_sc_hd__mux2_1
XFILLER_0_49_892 VGND VGND VPWR VPWR sky130_fd_sc_hd__decap_4
XFILLER_0_119_791 VGND VGND VPWR VPWR sky130_fd_sc_hd__decap_8
XFILLER_0_70_309 VGND VGND VPWR VPWR sky130_fd_sc_hd__decap_3
X_10644_ _05165_ VGND VGND VPWR VPWR _00555_ sky130_fd_sc_hd__clkbuf_1
XFILLER_0_36_531 VGND VGND VPWR VPWR sky130_fd_sc_hd__fill_1
XFILLER_0_141_709 VGND VPWR VPWR VGND sky130_ef_sc_hd__decap_12
XFILLER_0_91_681 VGND VGND VPWR VPWR sky130_fd_sc_hd__fill_1
X_10575_ u_rf.reg16_q\[11\] _04962_ _05127_ VGND VGND VPWR VPWR _05129_ sky130_fd_sc_hd__mux2_1
XFILLER_0_36_597 VGND VGND VPWR VPWR sky130_fd_sc_hd__fill_1
X_12314_ clknet_leaf_61_clk _00351_ net339 VGND VGND VPWR VPWR u_rf.reg10_q\[31\]
+ sky130_fd_sc_hd__dfrtp_1
Xrebuffer7 _01113_ VGND VGND VPWR VPWR net381 sky130_fd_sc_hd__buf_1
X_12245_ clknet_leaf_45_clk _00282_ net300 VGND VGND VPWR VPWR u_rf.reg8_q\[26\] sky130_fd_sc_hd__dfrtp_1
XFILLER_0_139_39 VGND VPWR VPWR VGND sky130_ef_sc_hd__decap_12
X_12176_ clknet_leaf_36_clk _00213_ net271 VGND VGND VPWR VPWR u_rf.reg6_q\[21\] sky130_fd_sc_hd__dfrtp_1
XTAP_TAPCELL_ROW_75_1575 VGND VPWR sky130_fd_sc_hd__tapvpwrvgnd_1
X_11127_ _05421_ VGND VGND VPWR VPWR _00782_ sky130_fd_sc_hd__clkbuf_1
XFILLER_0_101_190 VGND VPWR VPWR VGND sky130_ef_sc_hd__decap_12
XFILLER_0_155_27 VGND VPWR VPWR VGND sky130_ef_sc_hd__decap_12
X_11058_ _04751_ u_rf.reg23_q\[14\] _05380_ VGND VGND VPWR VPWR _05385_ sky130_fd_sc_hd__mux2_1
XFILLER_0_64_25 VGND VGND VPWR VPWR sky130_fd_sc_hd__decap_3
XFILLER_0_3_39 VGND VPWR VPWR VGND sky130_ef_sc_hd__decap_12
X_10009_ u_rf.reg8_q\[19\] _04467_ _04801_ VGND VGND VPWR VPWR _04811_ sky130_fd_sc_hd__mux2_1
XFILLER_0_149_809 VGND VPWR VPWR VGND sky130_ef_sc_hd__decap_12
XFILLER_0_99_781 VGND VGND VPWR VPWR sky130_fd_sc_hd__decap_3
XFILLER_0_59_612 VGND VGND VPWR VPWR sky130_fd_sc_hd__decap_4
XFILLER_0_147_3 VGND VPWR VPWR VGND sky130_ef_sc_hd__decap_12
XTAP_TAPCELL_ROW_106_2096 VGND VPWR sky130_fd_sc_hd__tapvpwrvgnd_1
XTAP_TAPCELL_ROW_106_2085 VGND VPWR sky130_fd_sc_hd__tapvpwrvgnd_1
XTAP_TAPCELL_ROW_35_916 VGND VPWR sky130_fd_sc_hd__tapvpwrvgnd_1
XFILLER_0_157_853 VGND VPWR VPWR VGND sky130_ef_sc_hd__decap_12
XFILLER_0_157_831 VGND VGND VPWR VPWR sky130_fd_sc_hd__decap_8
XPHY_EDGE_ROW_103_Left_261 VGND VGND VPWR VPWR sky130_fd_sc_hd__decap_3
XFILLER_0_80_24 VGND VGND VPWR VPWR sky130_fd_sc_hd__decap_4